Circuit: * Z:\home\ildus\dev\midi_fpga\hardware\midi_out.asc

Limiting rise time of source v1 to 0.1
Limiting fall time of source v1 to 0.1
Direct Newton iteration failed to find .op point.  (Use ".option noopiter" to skip.)
Starting Gmin stepping
Gmin = 10
Gmin = 1.07374
Gmin = 0.115292
Gmin = 0.0123794
Gmin = 0.00132923
Gmin = 0.000142725
Gmin = 1.5325e-005
Gmin = 1.6455e-006
Gmin = 1.76685e-007
Gmin = 1.89714e-008
Gmin = 2.03704e-009
Gmin = 2.18725e-010
Gmin = 2.34854e-011
Gmin = 2.52173e-012
Gmin = 2.70769e-013
Gmin = 0
Gmin stepping succeeded in finding the operating point.


Date: Sat Jan 09 00:02:19 2021
Total elapsed time: 0.096 seconds.

tnom = 27
temp = 27
method = modified trap
totiter = 12467
traniter = 12081
tranpoints = 3459
accept = 2783
rejected = 676
matrix size = 27
fillins = 3
solver = Normal
Matrix Compiler1: 1.02 KB object code size  0.4/0.5/[0.2]
Matrix Compiler2: 1.94 KB object code size  0.2/0.3/[0.2]

